* c:\moba trade\test_nmos.asc
* Generated by LTspice 24.1.9 for Windows.
M§ NC_01 NC_02 NC_03 NC_04 NMOS
.model NMOS NMOS
.model PMOS PMOS
.lib C:\Users\masou\AppData\Local\LTspice\lib\cmp\standard.mos
.backanno
.end
